Version 4
SHEET 1 1456 680
WIRE -288 -1104 -448 -1104
WIRE -32 -1104 -192 -1104
WIRE 16 -1104 -32 -1104
WIRE 144 -1104 16 -1104
WIRE 320 -1104 224 -1104
WIRE 416 -1104 320 -1104
WIRE 592 -1104 416 -1104
WIRE 720 -1104 592 -1104
WIRE 592 -1040 592 -1104
WIRE -208 -1024 -208 -1056
WIRE -128 -1024 -208 -1024
WIRE -32 -1024 -32 -1104
WIRE -32 -1024 -48 -1024
WIRE -448 -1008 -448 -1104
WIRE 16 -1008 16 -1104
WIRE 320 -1008 320 -1104
WIRE 416 -1008 416 -1104
WIRE -112 -976 -192 -976
WIRE 592 -944 592 -960
WIRE 896 -928 640 -928
WIRE 1008 -928 976 -928
WIRE -448 -864 -448 -928
WIRE -64 -864 -64 -976
WIRE -64 -864 -448 -864
WIRE 16 -864 16 -944
WIRE 16 -864 -64 -864
WIRE 320 -864 320 -944
WIRE 320 -864 16 -864
WIRE 416 -864 416 -928
WIRE 416 -864 320 -864
WIRE 592 -864 416 -864
WIRE 272 -768 208 -768
WIRE 432 -768 336 -768
WIRE -480 -720 -480 -752
WIRE -400 -720 -400 -752
WIRE -304 -720 -304 -752
WIRE 208 -656 208 -768
WIRE 224 -656 208 -656
WIRE 336 -656 304 -656
WIRE 432 -656 432 -768
WIRE 432 -656 400 -656
WIRE 448 -656 432 -656
WIRE 560 -656 528 -656
WIRE 640 -656 624 -656
WIRE 384 -592 304 -592
WIRE 640 -592 640 -656
WIRE 720 -592 720 -1104
WIRE 720 -592 640 -592
WIRE -128 -576 -128 -592
WIRE -128 -576 -144 -576
WIRE -112 -576 -128 -576
WIRE 304 -576 304 -592
WIRE -144 -560 -144 -576
WIRE -128 -560 -128 -576
WIRE -112 -560 -112 -576
WIRE 384 -560 384 -592
WIRE 432 -544 432 -656
WIRE 432 -544 416 -544
WIRE 480 -544 432 -544
WIRE 640 -544 640 -592
WIRE 640 -544 560 -544
WIRE 32 -528 -96 -528
WIRE 208 -528 208 -656
WIRE 208 -528 32 -528
WIRE 352 -528 208 -528
WIRE 464 -512 416 -512
WIRE -192 -496 -192 -976
WIRE -176 -496 -192 -496
WIRE -64 -496 -96 -496
WIRE 464 -496 464 -512
WIRE -64 -464 -64 -496
WIRE 384 -464 384 -496
WIRE -128 -432 -128 -464
WIRE -128 -336 -128 -352
FLAG -128 -592 0
FLAG -304 -640 0
FLAG -400 -640 0
FLAG -480 -640 0
FLAG 16 -864 0
FLAG 384 -464 0
FLAG -304 -752 vref
FLAG 464 -496 vref
FLAG -400 -752 vcc
FLAG 304 -576 vcc
FLAG -64 -464 vcar
FLAG -480 -752 vcar
FLAG 720 -1104 output
FLAG 32 -528 cmd
FLAG -128 -336 0
FLAG 640 -880 0
FLAG 1008 -928 0
SYMBOL OpAmps\\LT1213 384 -592 M0
SYMATTR InstName U1
SYMBOL res 576 -560 R90
WINDOW 0 0 56 VBottom 2
WINDOW 3 32 56 VTop 2
SYMATTR InstName Ri
SYMATTR Value 10k
SYMBOL res 544 -672 R90
WINDOW 0 0 56 VBottom 2
WINDOW 3 32 56 VTop 2
SYMATTR InstName Ri1
SYMATTR Value 101
SYMBOL res 320 -672 R90
WINDOW 0 0 56 VBottom 2
WINDOW 3 32 56 VTop 2
SYMATTR InstName Rf
SYMATTR Value 41.687k
SYMBOL cap 624 -672 R90
WINDOW 0 0 32 VBottom 2
WINDOW 3 32 32 VTop 2
SYMATTR InstName Ci1
SYMATTR Value 2.627n
SYMBOL cap 400 -672 R90
WINDOW 0 0 32 VBottom 2
WINDOW 3 32 32 VTop 2
SYMATTR InstName Cf
SYMATTR Value 0.636n
SYMBOL cap 336 -784 R90
WINDOW 0 0 32 VBottom 2
WINDOW 3 32 32 VTop 2
SYMATTR InstName Chf
SYMATTR Value 130p
SYMBOL Comparators\\LT1713 -128 -512 R180
SYMATTR InstName U2
SYMBOL voltage -448 -1024 R0
WINDOW 123 0 0 Left 0
WINDOW 39 0 0 Left 0
WINDOW 3 24 44 Left 2
SYMATTR Value 10
SYMATTR InstName V1
SYMBOL voltage -480 -736 R0
WINDOW 3 -471 -47 Left 2
WINDOW 123 0 0 Left 0
WINDOW 39 0 0 Left 0
SYMATTR Value PULSE(0 10 0 1.67u .00001u 0 1.67u)
SYMATTR InstName V2
SYMBOL voltage -400 -736 R0
WINDOW 123 0 0 Left 0
WINDOW 39 0 0 Left 0
SYMATTR InstName V3
SYMATTR Value 5
SYMBOL voltage -304 -736 R0
WINDOW 123 0 0 Left 0
WINDOW 39 0 0 Left 0
SYMATTR InstName V4
SYMATTR Value 1.2
SYMBOL diode 32 -944 R180
WINDOW 0 24 64 Left 2
WINDOW 3 24 0 Left 2
SYMATTR InstName D1
SYMBOL ind 128 -1088 R270
WINDOW 0 32 56 VTop 2
WINDOW 3 5 56 VBottom 2
SYMATTR InstName L1
SYMATTR Value 1µ
SYMBOL cap 304 -1008 R0
SYMATTR InstName C4
SYMATTR Value 300µ
SYMBOL res 400 -1024 R0
SYMATTR InstName R4
SYMATTR Value 0.15
SYMBOL voltage -128 -448 R0
WINDOW 123 0 0 Left 0
WINDOW 39 0 0 Left 0
SYMATTR InstName V5
SYMATTR Value 5
SYMBOL sw 592 -848 R180
SYMATTR InstName S2
SYMATTR Value S2
SYMBOL res 576 -1056 R0
SYMATTR InstName R2
SYMATTR Value 1.2
SYMBOL voltage 880 -928 R270
WINDOW 0 32 56 VTop 2
WINDOW 3 -49 152 VBottom 2
WINDOW 123 0 0 Left 0
WINDOW 39 0 0 Left 0
SYMATTR InstName V6
SYMATTR Value PULSE(0 2 1.2m .00001n .00001n 2m 2m)
SYMBOL e -144 -1024 R270
SYMATTR InstName E1
SYMATTR Value .6
SYMBOL nmos -288 -1056 R270
SYMATTR InstName M1
SYMATTR Value BSC019NE2LSI
TEXT -952 -736 Left 2 !.tran 2m
TEXT 768 -1032 Left 2 !.model S2 SW(Ron=.0001p Roff=100MEG Vt=0.5)
